
 OpenBabel02192414273D

 46 48  0  0  0  0  0  0  0  0999 V2000
    2.7857    0.2844   -1.7937 C   0  0  0  0  0  0  0  0  0  0  0  0
    2.4022    0.2655   -0.3154 C   0  0  2  0  0  0  0  0  0  0  0  0
    2.8821    1.4740    0.4714 C   0  0  0  0  0  0  0  0  0  0  0  0
    4.3646    1.4041    0.7295 C   0  0  0  0  0  0  0  0  0  0  0  0
    5.1145    2.5506    1.0021 C   0  0  0  0  0  0  0  0  0  0  0  0
    4.4047    4.1234    1.0435 Cl  0  0  0  0  0  0  0  0  0  0  0  0
    6.4796    2.4569    1.2668 C   0  0  0  0  0  0  0  0  0  0  0  0
    7.1515    1.2235    1.2881 C   0  0  0  0  0  0  0  0  0  0  0  0
    6.4069    0.0589    1.0349 C   0  0  0  0  0  0  0  0  0  0  0  0
    7.0529   -1.1544    1.0624 O   0  0  0  0  0  0  0  0  0  0  0  0
    5.0133    0.1521    0.7628 C   0  0  0  0  0  0  0  0  0  0  0  0
    4.2075   -1.0837    0.5484 C   0  0  0  0  0  0  0  0  0  0  0  0
    4.7428   -2.1834    0.6497 O   0  0  0  0  0  0  0  0  0  0  0  0
    2.8848   -0.9477    0.2862 O   0  0  0  0  0  0  0  0  0  0  0  0
    8.6115    1.3120    1.6062 C   0  0  0  0  0  0  0  0  0  0  0  0
    9.1158    2.4198    1.8290 O   0  0  0  0  0  0  0  0  0  0  0  0
    9.4272    0.2052    1.5861 N   0  0  0  0  0  0  0  0  0  0  0  0
   10.8813    0.3320    1.8469 C   0  0  1  0  0  0  0  0  0  0  0  0
   11.5729   -0.9347    2.3971 C   0  0  0  0  0  0  0  0  0  0  0  0
   11.3478   -2.1733    1.5692 C   0  0  0  0  0  0  0  0  0  0  0  0
   12.2682   -2.5553    0.5851 C   0  0  0  0  0  0  0  0  0  0  0  0
   11.9668   -3.5942   -0.2932 C   0  0  0  0  0  0  0  0  0  0  0  0
   10.7504   -4.2656   -0.1836 C   0  0  0  0  0  0  0  0  0  0  0  0
    9.8597   -3.9358    0.8351 C   0  0  0  0  0  0  0  0  0  0  0  0
   10.1648   -2.9064    1.7245 C   0  0  0  0  0  0  0  0  0  0  0  0
   11.6546    0.9462    0.6525 C   0  0  0  0  0  0  0  0  0  0  0  0
   11.2247    2.1936    0.3268 O   0  0  0  0  0  0  0  0  0  0  0  0
   12.6208    0.4506    0.0952 O   0  0  0  0  0  0  0  0  0  0  0  0
    2.3237   -0.5676   -2.3053 H   0  0  0  0  0  0  0  0  0  0  0  0
    2.4548    1.2042   -2.2840 H   0  0  0  0  0  0  0  0  0  0  0  0
    3.8655    0.1790   -1.9382 H   0  0  0  0  0  0  0  0  0  0  0  0
    1.3067    0.2383   -0.2581 H   0  0  0  0  0  0  0  0  0  0  0  0
    2.6056    2.3838   -0.0748 H   0  0  0  0  0  0  0  0  0  0  0  0
    2.3799    1.5014    1.4475 H   0  0  0  0  0  0  0  0  0  0  0  0
    7.0322    3.3741    1.4685 H   0  0  0  0  0  0  0  0  0  0  0  0
    6.3964   -1.8745    0.9125 H   0  0  0  0  0  0  0  0  0  0  0  0
    9.0514   -0.6560    1.1933 H   0  0  0  0  0  0  0  0  0  0  0  0
   10.9933    1.0786    2.6464 H   0  0  0  0  0  0  0  0  0  0  0  0
   12.6525   -0.7544    2.4976 H   0  0  0  0  0  0  0  0  0  0  0  0
   11.2161   -1.1272    3.4174 H   0  0  0  0  0  0  0  0  0  0  0  0
   13.2095   -2.0198    0.4658 H   0  0  0  0  0  0  0  0  0  0  0  0
   12.6700   -3.8572   -1.0792 H   0  0  0  0  0  0  0  0  0  0  0  0
   10.4968   -5.0438   -0.8973 H   0  0  0  0  0  0  0  0  0  0  0  0
    8.9145   -4.4645    0.9263 H   0  0  0  0  0  0  0  0  0  0  0  0
    9.4590   -2.6520    2.5090 H   0  0  0  0  0  0  0  0  0  0  0  0
   10.4934    2.5023    0.9165 H   0  0  0  0  0  0  0  0  0  0  0  0
  1 29  1  0  0  0  0
  1 30  1  0  0  0  0
  1 31  1  0  0  0  0
  2  3  1  0  0  0  0
  2  1  1  0  0  0  0
  2 32  1  1  0  0  0
  3  4  1  0  0  0  0
  3 33  1  0  0  0  0
  3 34  1  0  0  0  0
  4  5  2  0  0  0  0
  5  6  1  0  0  0  0
  5  7  1  0  0  0  0
  7  8  2  0  0  0  0
  7 35  1  0  0  0  0
  8  9  1  0  0  0  0
  8 15  1  0  0  0  0
  9 10  1  0  0  0  0
  9 11  2  0  0  0  0
 10 36  1  0  0  0  0
 11 12  1  0  0  0  0
 11  4  1  0  0  0  0
 12 13  2  0  0  0  0
 12 14  1  0  0  0  0
 14  2  1  0  0  0  0
 15 16  2  0  0  0  0
 15 17  1  0  0  0  0
 17 18  1  0  0  0  0
 17 37  1  0  0  0  0
 18 19  1  0  0  0  0
 18 26  1  0  0  0  0
 18 38  1  1  0  0  0
 19 20  1  0  0  0  0
 19 39  1  0  0  0  0
 19 40  1  0  0  0  0
 20 21  2  0  0  0  0
 21 22  1  0  0  0  0
 21 41  1  0  0  0  0
 22 23  2  0  0  0  0
 22 42  1  0  0  0  0
 23 24  1  0  0  0  0
 23 43  1  0  0  0  0
 24 25  2  0  0  0  0
 24 44  1  0  0  0  0
 25 20  1  0  0  0  0
 25 45  1  0  0  0  0
 26 27  1  0  0  0  0
 26 28  2  0  0  0  0
 27 46  1  0  0  0  0
M  END
$$$$
